#!/bin/ksh

RUNDIR=_RUND_
SRCDIR=_SRCD_

mkdir -p $RUNDIR
cd $RUNDIR
rm -rf $RUNDIR/*

cp _RTPWD_/NMMB_reg/input_nmmb_regional.d01               input_domain_01
cp _RTPWD_/NMMB_reg/input_nmmb_regional.d01_nemsio        input_domain_01_nemsio
cp _RTPWD_/NMMB_reg/nmmb_rst_01_bin_0024h_00m_00.00s  restart_file_01
cp _RTPWD_/NMMB_reg/nmmb_rst_01_nio_0024h_00m_00.00s  restart_file_01_nemsio
cp _RTPWD_/NMMB_reg/GWD_bin_01 .
cp _RTPWD_/NMMB_reg/boco.* .
_CPPCP_cp ../NMM_REG_CTL/pcp.hr* .

cp $SRCDIR/job/regression_tests/atmos.configure_nmm atmos.configure
cp $SRCDIR/job/regression_tests/configure_file_01 .
cp configure_file_01 model_configure
cp _RTPWD_/data/* .
cp IGBP_VEGPARM.TBL VEGPARM.TBL
cp IGBP_LANDUSE.TBL LANDUSE.TBL
cp ETAMPNEW_DATA.expanded_rain ETAMPNEW_DATA
ln -sf global_o3prdlos.f77 fort.28
ln -sf global_o3clim.txt fort.48

cp $SRCDIR/job/regression_tests/solver_state.txt .
cp $SRCDIR/job/regression_tests/moving_nest_shift.txt .
_TS_cp $SRCDIR/job/regression_tests/ts_locations.nml .

#for post
export WRITE_DOPOST=_wrtdopost_
export WRITE_DOPOST=${WRITE_DOPOST:-.false.}
export POST_GRIBVERSION=_postgrbvs_
export POST_GRIBVERSION=${POST_GRIBVERSION:-'"grib1"'}
if  [[ $WRITE_DOPOST = .true. ]]; then
export PGBOUT=nmm_pgb
export IGEN=82
cat <<EOF >postgp.inp.nml$$
 &NAMPGB
 $POSTGPVARS
  /
EOF
cp ${SRCDIR}/job/regression_tests/nmmb_cntrl.parm ./nmmb_cntrl.parm
ln -sf ./nmmb_cntrl.parm fort.14
ln -sf griddef.out fort.110
if [ $SCHEDULER = 'loadleveler' ]; then
  cp /nwprod/parm/nam_micro_lookup.dat ./eta_micro_lookup.dat
elif [ $SCHEDULER = 'pbs' ]; then
  cp _RTPWD_/data_POST/eta_micro_lookup.dat ./eta_micro_lookup.dat
elif [ $SCHEDULER = 'lsf' ]; then
  cp /nwprod/parm/nam_micro_lookup.dat ./eta_micro_lookup.dat
fi

fi


cp $SRCDIR/exe/NEMS.x .

if [ $SCHEDULER = 'loadleveler' ]; then
  cp $SRCDIR/job/regression_tests/nmm_ll .
  llsubmit nmm_ll 2>&1 | grep submitted > /dev/null
elif [ $SCHEDULER = 'moab' ]; then
  cp $SRCDIR/job/regression_tests/nmm_msub .
  msub nmm_msub > /dev/null
elif [ $SCHEDULER = 'pbs' ]; then
  cp $SRCDIR/job/regression_tests/nmm_qsub .
  qsub nmm_qsub > /dev/null
elif [ $SCHEDULER = 'lsf' ]; then
  cp $SRCDIR/job/regression_tests/nmm_bsub .
  bsub < nmm_bsub > /dev/null
fi

exit
