 &time_control
 run_days                            = 1,
 run_hours                           = 0,   
 run_minutes                         = 0,
 run_seconds                         = 0,
 start_year                          = 2007,
 start_month                         = 04,
 start_day                           = 15,
 start_hour                          = 18,
 start_minute                        = 00,
 start_second                        = 00,
 tstart                              = 00,
 end_year                            = 2007,
 end_month                           = 04,
 end_day                             = 16,
 end_hour                            = 18,
 end_minute                          = 00,
 end_second                          = 00,
 interval_seconds                    = 10800,
 history_interval                    = 180
 frames_per_outfile                  = 1,
 restart                             = .false.,
 restart_interval                    = 6000,
 io_form_input                       = 1
 io_form_history                     = 1
 io_form_restart                     = 1
 io_form_boundary                    = 1
 io_form_auxinput1                   = 1
 auxinput1_inname                    = "met_nmm.d<domain>.<date>"
 debug_level                         = 0
 /

 &fdda
/

 &domains
 time_step                           = 7,
 time_step_fract_num                 = 1,
 time_step_fract_den                 = 2,
 max_dom                             = 1,
 s_we                                = 1,
 e_we                                = 779,
 s_sn                                = 1,
 e_sn                                = 1100,
 s_vert                              = 1,
 e_vert                              = 36,
 num_metgrid_levels                  = 40,
 dx                                  = .0260 
 dy                                  = .0256,
 grid_id                             = 1,
 p_top_requested                     = 5000.
 ptsgm                               = 42000.,
 eta_levels                          =  1.0000, .994, .982, .968, .95, .93, .908, .882, .853,
                                        .821, .788, .752, .715, .677, .637, .597, .557, .517,
                                        .477, .438, .401, .365, .330, .298, .268, .240, .214,
                                        .188, .162, .137, .114, .091, .068, .045, .022, .0000
 tile_sz_x		   	     = 0,
 tile_sz_y		   	     = 0,
 numtiles			     = 1,
/

 &physics
 mp_physics                          = 5,
 ra_lw_physics                       = 99,
 ra_sw_physics                       = 99,
 radt                                = 60,
 nrads                               = 480, 
 nradl                               = 480,
 co2tf                               = 1,
 sf_sfclay_physics                   = 2,
 sf_surface_physics                  = 99,
 bl_pbl_physics                      = 2,
 bldt                                = 3,
 nphs                                = 8,
 cu_physics                          = 0,
 cudt                                = 3,
 ncnvc                               = 8,
 tprec                               = 3,
 theat                               = 6,
 tclod                               = 6,
 trdsw                               = 6,
 trdlw                               = 6,
 tsrfc                               = 6,
 pcpflg                              = .false.,
 isfflx                              = 0,
 ifsnow                              = 0,
 icloud                              = 0,
 num_soil_layers                     = 4,
 mp_zero_out                         = 0,
 /

 &dynamics
 dyn_opt                             = 4,
 rk_ord                              = 3,
 diff_opt                            = 0,
 km_opt                              = 1,
 damp_opt                            = 1,
 zdamp                               = 5000.,
 dampcoef                            = 0.01,
 khdif                               = 0,
 kvdif                               = 0,
 mix_cr_len			     = 200.,
 smdiv                               = 0.1,
 emdiv                               = 0.01,
 epssm                               = 0.1,
 time_step_sound                     = 4,
 /

 &bdy_control
 spec_bdy_width                      = 1,
 spec_zone                           = 1,
 relax_zone                          = 4,
 specified                           = .true.,
 periodic_x                          = .false.,
 symmetric_xs                        = .false.,
 symmetric_xe                        = .false.,
 open_xs                             = .false.,
 open_xe                             = .false.,
 periodic_y                          = .false.,
 symmetric_ys                        = .false.,
 symmetric_ye                        = .false.,
 open_ys                             = .false.,
 open_ye                             = .false.,
 nested                              = .false.,
 /

 &grib2
/

 &namelist_quilt
 nio_tasks_per_group = 10,
 nio_groups = 1,
 /
